Version 4
SHEET 1 1760 1060
WIRE -336 -144 -480 -144
WIRE -128 -144 -336 -144
WIRE 176 -144 -128 -144
WIRE -336 -112 -336 -144
WIRE -128 -112 -128 -144
WIRE 176 -112 176 -144
WIRE -32 -64 -64 -64
WIRE 112 -64 -32 -64
WIRE -128 0 -128 -16
WIRE -32 0 -32 -64
WIRE -32 0 -128 0
WIRE -336 16 -336 -32
WIRE -128 32 -128 0
WIRE 176 32 176 -16
WIRE -32 80 -64 80
WIRE 112 80 -32 80
WIRE -480 112 -480 -144
WIRE -128 160 -128 128
WIRE -32 160 -32 80
WIRE -32 160 -128 160
WIRE 176 160 176 128
WIRE 336 160 176 160
WIRE -128 176 -128 160
WIRE 176 176 176 160
WIRE -480 208 -480 192
WIRE -336 208 -480 208
WIRE -272 208 -336 208
WIRE 336 208 336 160
WIRE 384 208 384 96
WIRE 384 208 336 208
WIRE -32 224 -32 160
WIRE -32 224 -64 224
WIRE 112 224 -32 224
WIRE -480 240 -480 208
WIRE -608 288 -704 288
WIRE -128 288 -128 272
WIRE -32 288 -128 288
WIRE -704 304 -704 288
WIRE -128 304 -128 288
WIRE 176 304 176 272
WIRE -32 352 -32 288
WIRE -32 352 -64 352
WIRE 0 352 -32 352
WIRE 96 352 80 352
WIRE 112 352 96 352
WIRE -704 448 -704 384
WIRE -480 448 -480 416
WIRE 96 480 96 352
WIRE 96 496 96 480
WIRE -336 544 -336 208
WIRE 96 544 -336 544
WIRE -128 608 -128 400
WIRE 16 608 -128 608
WIRE 176 608 176 400
WIRE 176 608 16 608
WIRE 16 624 16 608
WIRE 16 720 16 688
FLAG 16 720 0
FLAG -336 16 0
FLAG 384 96 mid
FLAG -272 208 out
IOPIN -272 208 Out
FLAG -480 448 0
FLAG -704 448 0
SYMBOL res 96 336 R90
WINDOW 0 0 56 VBottom 2
WINDOW 3 32 56 VTop 2
SYMATTR InstName R1
SYMATTR Value 500k
SYMBOL res2 32 688 R180
WINDOW 0 36 56 Left 2
WINDOW 3 36 16 Left 2
SYMATTR InstName R3
SYMATTR Value 6350k
SYMBOL voltage -336 -128 R0
WINDOW 123 0 0 Left 2
WINDOW 39 0 0 Left 2
SYMATTR InstName V2
SYMATTR Value 3
SYMBOL npn -544 240 R0
SYMATTR InstName Qref2
SYMATTR Value 2N3904
SYMBOL res -496 320 R0
SYMATTR InstName R9
SYMATTR Value 5k
SYMBOL res -464 208 R180
WINDOW 0 36 76 Left 2
WINDOW 3 36 40 Left 2
SYMATTR InstName R10
SYMATTR Value 1k
SYMBOL voltage -704 288 R0
WINDOW 123 24 132 Left 2
WINDOW 39 0 0 Left 2
SYMATTR Value2 AC 0.00008
SYMATTR InstName V5
SYMATTR Value ""
SYMBOL cap -544 272 R90
WINDOW 0 0 32 VBottom 2
WINDOW 3 32 32 VTop 2
SYMATTR InstName C3
SYMATTR Value 1µ
SYMBOL cap 80 480 R0
SYMATTR InstName C1
SYMATTR Value 1µ
SYMBOL nmos 336 800 R0
SYMATTR InstName M1
SYMATTR Value BS170/ZX
SYMATTR Prefix X
TEXT 728 -208 Left 2 !.include ee105.mod
TEXT -368 744 Left 2 !.ac dec 10 1 10k
TEXT -368 792 Left 2 !;dc DC 4.5 -4.5 0.1
TEXT 848 720 Left 2 !*  ZETEX  BS170_Z Mosfet Spice Subcircuit   Last revision  3/5/00\n*\n.SUBCKT BS170/ZX 3 4 5\n*             D G S\nM1 3 2 5 5 N3306M\nRG 4 2 270\nRL 3 5 1.2E8\nC1 2 5 28E-12\nC2 3 2 3E-12 \nD1 5 3 N3306D\n*\n.MODEL N3306M NMOS VTO=1.824 RS=1.572 RD=1.436 IS=1E-15 KP=.1233\n+CBD=35E-12 PB=1\n.MODEL N3306D D IS=5E-12 RS=.768\n.ENDS BS170
TEXT -264 976 Left 2 !.MODEL ALD1106 NMOS (LEVEL=1 CBD=0.5p CBS=0.5p CGDO=0.1p CGSO=0.1p GAMMA=.85\n+ KP=225u L=10E-6 LAMBDA=0.029 PHI=.9 VTO=0.7 W=20E-6)\n.MODEL ALD1107 PMOS (LEVEL=1 CBD=0.5p CBS=0.5p CGDO=0.1p CGSO=0.1p GAMMA=.45\n+ KP=100u L=10E-6 LAMBDA=0.0304 PHI=.8 VTO=-0.82 W=20E-6)
